Warning: m=xx on .subckt line will override multiplier m hierarchy!


Note: Compatibility modes selected: hs a


Circuit: ** sch_path: /foss/designs/cs_amp/schematic/cs.sch

option SCALE: Scale is set to 1e-06 for instance and model parameters
option SCALE: Scale is set to 1e-06 for instance and model parameters
Doing analysis at TEMP = 27.000000 and TNOM = 27.000000

Using SPARSE 1.3 as Direct Linear Solver
 Reference value :  0.00000e+00 Reference value :  8.49000e-01 Reference value :  1.45700e+00Warning from checkvalid: vector m.xm2.msky130_fd_pr__nfet_01v8_lvt is not available or has zero length.
Error: RHS "m.xm2.msky130_fd_pr__nfet_01v8_lvt[id]" invalid
Warning from checkvalid: vector id is not available or has zero length.
Error: RHS "deriv(id)" invalid

Warning: command 'plot' is not available during batch simulation, ignored!
    You may use Gnuplot instead.


Warning: command 'plot' is not available during batch simulation, ignored!
    You may use Gnuplot instead.


No. of Data Rows : 1801
Doing analysis at TEMP = 27.000000 and TNOM = 27.000000

Using SPARSE 1.3 as Direct Linear Solver

No. of Data Rows : 1001
Doing analysis at TEMP = 27.000000 and TNOM = 27.000000

Using SPARSE 1.3 as Direct Linear Solver

Initial Transient Solution
--------------------------

Node                                   Voltage
----                                   -------
vds_fr                                0.796178
vgs_fr                                   0.707
xr2.xsky130_fd_pr__res_xhigh_po_1p41.ra        0.872332
vdd                                        1.8
xr2.xsky130_fd_pr__res_xhigh_po_1p41.rbody_3               0
xr2.xsky130_fd_pr__res_xhigh_po_1p41.rend_3               0
vgs                                      0.707
v.xr2.xsky130_fd_pr__res_xhigh_po_1p41.vrend_3#branch               0
v.xr2.xsky130_fd_pr__res_xhigh_po_1p41.vrbody_3#branch               0
vgs0#branch                                  0
vin0#branch                                  0
vdd0#branch                        -0.00030881


Warning: command 'plot' is not available during batch simulation, ignored!
    You may use Gnuplot instead.


No. of Data Rows : 408
Note: Simulation executed from .control section 
